*Heading
** Job name: Job-3 Model name: Model-1
** Generated by: Abaqus/CAE Learning Edition 2024
*Preprint, echo=NO, model=NO, history=NO, contact=NO
**
** PARTS
**
*Part, name=Part-3
*Node
      1,        -600.,         150.,         710.
      2,        -600.,         150.,         750.
      3,         400.,         150.,         750.
      4,         400.,         150.,         710.
      5,        -600.,         150.,         790.
      6,         400.,         150.,         790.
      7,         280.,         120.,         750.
      8,         300.,         120.,         750.
      9,         300.,         120.,           0.
     10,         280.,         120.,           0.
     11,         320.,         120.,         750.
     12,         320.,         120.,           0.
     13,         120.,         120.,         750.
     14,         100.,         120.,         750.
     15,         100.,         120.,           0.
     16,         120.,         120.,           0.
     17,          80.,         120.,         750.
     18,         100.,         120.,        1500.
     19,          80.,         120.,        1500.
     20,         300.,           0.,         750.
** ... 763 like lines cut
*Element, type=S4
 1,  1,  2, 69, 92
 2, 92, 69, 70, 91
 3, 91, 70, 71, 90
 4, 90, 71, 72, 89
 5, 89, 72, 73, 88
 6, 88, 73, 74, 87
 7, 87, 74, 75, 86
 8, 86, 75, 76, 85
 9, 85, 76, 77, 84
10, 84, 77, 78, 83
11, 83, 78, 79, 82
12, 82, 79, 80, 81
13, 81, 80,  3,  4
14,   2,   5,  93,  69
15,  69,  93,  94,  70
16,  70,  94,  95,  71
17,  71,  95,  96,  72
18,  72,  96,  97,  73
19,  73,  97,  98,  74
20,  74,  98,  99,  75
** ... 715 like lines cut
*Element, type=S3
667,  80,   8,  11
668, 748, 744,  11
669,  75,  30,  29
670, 746,  33,  74
671, 744, 505,   3
672, 770, 757, 766
673,  76, 768, 776
674, 769,   2, 504
675, 266,  67,  38
676, 774,  78,  77
677, 775, 774,  77
678,  23,  69,  26
679,  14, 775,  17
680, 776,  77,  76
681, 777,  73,  72
682,  47, 777,  72
683,  72,  45,  47
684, 780, 762, 753
685, 756, 761, 780
*Nset, nset=Set-1, generate
   1,  783,    1
*Elset, elset=Set-1, generate
   1,  754,    1
*Nset, nset=Set-2
   1,   2,   3,   4,   5,   6,   7,   8,  11,  13,  14,  17,  20,  21,  22,  23
  26,  29,  30,  33,  36,  37,  38,  39,  40,  41,  42,  43,  44,  45,  47,  49
  54,  55,  56,  57,  67,  68,  69,  70,  71,  72,  73,  74,  75,  76,  77,  78
  79,  80,  81,  82,  83,  84,  85,  86,  87,  88,  89,  90,  91,  92,  93,  94
  95,  96,  97,  98,  99, 100, 101, 102, 103, 104, 168, 169, 170, 171, 172, 173
 174, 175, 176, 177, 251, 252, 253, 254, 255, 256, 257, 258, 259, 260, 262, 263
 264, 265, 266, 267, 268, 269, 270, 271, 272, 273, 274, 275, 277, 278, 279, 280
 281, 282, 283, 284, 285, 286, 288, 289, 290, 291, 292, 293, 294, 295, 296, 297
 298, 299, 300, 301, 302, 303, 304, 305, 306, 307, 308, 309, 310, 311, 312, 313
 314, 315, 316, 317, 318, 375, 376, 377, 378, 379, 380, 381, 382, 383, 384, 385
 386, 387, 388, 389, 390, 391, 392, 393, 394, 395, 396, 397, 398, 399, 400, 401
 402, 403, 404, 405, 406, 407, 408, 409, 410, 411, 412, 413, 414, 415, 416, 417
 418, 504, 505, 524, 525, 526, 527, 528, 529, 530, 531, 532, 533, 534, 535, 536
 537, 538, 539, 540, 541, 560, 561, 562, 563, 564, 565, 566, 567, 568, 569, 570
 571, 572, 573, 574, 575, 576, 577, 578, 579, 580, 581, 582, 583, 584, 585, 586
 587, 588, 589, 590, 591, 592, 593, 594, 595, 596, 597, 598, 599, 600, 601, 602
 603, 604, 605, 606, 607, 608, 609, 610, 611, 612, 613, 632, 633, 634, 635, 636
 637, 638, 639, 640, 641, 642, 643, 644, 645, 646, 647, 648, 649, 650, 651, 652
 653, 654, 655, 656, 657, 658, 659, 660, 661, 662, 663, 664, 665, 666, 667, 668
 669, 670, 671, 672, 673, 674, 675, 676, 677, 678, 679, 680, 681, 682, 683, 684
** ... 4 like lines cut
*Elset, elset=Set-2
   1,   2,   3,   4,   5,   6,   7,   8,   9,  10,  11,  12,  13,  14,  15,  16
  17,  18,  19,  20,  21,  22,  23,  24,  25,  26, 147, 148, 149, 150, 151, 152
 153, 154, 155, 156, 157, 158, 159, 160, 161, 162, 163, 164, 165, 166, 167, 168
 169, 170, 171, 172, 173, 174, 175, 176, 217, 218, 219, 220, 221, 222, 223, 224
 225, 226, 227, 228, 229, 230, 231, 232, 233, 234, 235, 236, 237, 238, 239, 240
 241, 242, 243, 244, 245, 246, 247, 248, 249, 250, 251, 252, 253, 254, 255, 256
 257, 258, 259, 260, 261, 262, 263, 264, 265, 266, 267, 268, 269, 270, 271, 272
 273, 274, 275, 276, 277, 278, 279, 280, 281, 282, 283, 284, 285, 286, 287, 288
 289, 290, 291, 292, 293, 294, 295, 296, 297, 298, 299, 300, 301, 302, 303, 304
 305, 306, 377, 378, 379, 380, 381, 382, 383, 384, 385, 386, 387, 388, 389, 390
 391, 392, 393, 394, 395, 396, 397, 398, 399, 400, 401, 402, 403, 404, 405, 406
 407, 408, 409, 410, 411, 412, 413, 414, 415, 416, 417, 418, 419, 420, 421, 422
 423, 424, 425, 426, 427, 428, 429, 430, 431, 432, 433, 434, 435, 436, 437, 438
 439, 440, 441, 442, 443, 444, 445, 446, 447, 448, 449, 450, 451, 452, 453, 454
 455, 456, 457, 458, 459, 460, 461, 462, 463, 464, 465, 466, 467, 468, 469, 470
 471, 472, 473, 474, 475, 476, 477, 478, 479, 480, 481, 482, 483, 484, 485, 486
 487, 488, 489, 490, 491, 492, 493, 494, 495, 496, 667, 668, 669, 670, 671, 672
 673, 674, 675, 676, 677, 678, 679, 680, 681, 682, 683, 684, 685, 686, 687, 688
 689, 690, 691, 692, 693, 694, 695, 696, 697, 698, 699, 700, 701, 702, 703, 704
 705, 706, 707, 708, 709, 710, 711, 712, 713, 714, 715, 716, 717, 718, 719, 720
 721, 722, 723, 724, 725, 726, 727, 728, 729, 730, 731, 732, 733, 734, 735, 736
 737, 738, 739, 740, 741, 742, 743, 744, 745, 746, 747, 748, 749, 750, 751, 752
 753, 754
*Nset, nset=Set-3
   1,   2,   3,   4,   5,   6,   7,   8,   9,  10,  11,  12,  13,  14,  15,  16
  17,  18,  19,  20,  21,  22,  23,  24,  25,  26,  27,  28,  29,  30,  31,  32
  33,  34,  35,  36,  37,  38,  39,  40,  41,  42,  43,  44,  45,  46,  47,  48
  49,  50,  51,  52,  53,  54,  55,  56,  57,  58,  59,  60,  61,  62,  63,  64
  65,  66,  67,  68,  69,  70,  71,  72,  73,  74,  75,  76,  77,  78,  79,  80
  81,  82,  83,  84,  85,  86,  87,  88,  89,  90,  91,  92,  93,  94,  95,  96
  97,  98,  99, 100, 101, 102, 103, 104, 105, 106, 107, 108, 109, 110, 111, 112
 113, 114, 115, 116, 117, 118, 119, 120, 121, 122, 123, 124, 125, 126, 127, 128
 129, 130, 131, 132, 133, 134, 135, 136, 137, 138, 139, 140, 141, 142, 143, 144
 145, 146, 147, 148, 149, 150, 151, 152, 153, 154, 155, 156, 157, 158, 159, 160
 161, 162, 163, 164, 165, 166, 167, 168, 169, 170, 171, 172, 173, 174, 175, 176
 177, 178, 179, 180, 181, 182, 183, 184, 185, 186, 187, 188, 189, 190, 191, 192
 193, 194, 195, 196, 197, 198, 199, 200, 201, 202, 203, 204, 205, 206, 207, 208
 209, 210, 211, 212, 213, 214, 215, 216, 217, 218, 219, 220, 221, 222, 223, 224
 225, 226, 227, 228, 229, 230, 231, 232, 233, 234, 235, 236, 237, 238, 239, 240
 241, 242, 243, 244, 245, 246, 247, 248, 249, 250, 251, 252, 253, 254, 255, 256
 257, 258, 259, 260, 261, 262, 263, 266, 267, 268, 269, 270, 271, 272, 273, 274
 275, 276, 277, 278, 279, 280, 281, 282, 283, 284, 285, 286, 287, 288, 289, 292
 293, 294, 295, 296, 297, 298, 299, 300, 301, 302, 305, 306, 307, 308, 309, 310
 311, 312, 313, 314, 315, 318, 319, 320, 321, 322, 323, 324, 325, 326, 327, 328
** ... 19 like lines cut
*Elset, elset=Set-3
   1,   2,   3,   4,   5,   6,   7,   8,   9,  10,  11,  12,  13,  14,  15,  16
  17,  18,  19,  20,  21,  22,  23,  24,  25,  26,  27,  28,  29,  30,  31,  32
  33,  34,  35,  36,  37,  38,  39,  40,  41,  42,  43,  44,  45,  46,  47,  48
  49,  50,  51,  52,  53,  54,  55,  56,  57,  58,  59,  60,  61,  62,  63,  64
  65,  66,  67,  68,  69,  70,  71,  72,  73,  74,  75,  76,  77,  78,  79,  80
  81,  82,  83,  84,  85,  86,  87,  88,  89,  90,  91,  92,  93,  94,  95,  96
  97,  98,  99, 100, 101, 102, 103, 104, 105, 106, 107, 108, 109, 110, 111, 112
 113, 114, 115, 116, 117, 118, 119, 120, 121, 122, 123, 124, 125, 126, 127, 128
 129, 130, 131, 132, 133, 134, 135, 136, 137, 138, 139, 140, 141, 142, 143, 144
 145, 146, 177, 178, 179, 180, 181, 182, 183, 184, 185, 186, 187, 188, 189, 190
 191, 192, 193, 194, 195, 196, 197, 198, 199, 200, 201, 202, 203, 204, 205, 206
 207, 208, 209, 210, 211, 212, 213, 214, 215, 216, 307, 308, 309, 310, 311, 312
 313, 314, 315, 316, 317, 318, 319, 320, 321, 322, 323, 324, 325, 326, 327, 328
 329, 330, 331, 332, 333, 334, 335, 336, 337, 338, 339, 340, 341, 342, 343, 344
 345, 346, 347, 348, 349, 350, 351, 352, 353, 354, 355, 356, 357, 358, 359, 360
 361, 362, 363, 364, 365, 366, 367, 368, 369, 370, 371, 372, 373, 374, 375, 376
 497, 498, 499, 500, 501, 502, 503, 504, 505, 506, 507, 508, 509, 510, 511, 512
 513, 514, 515, 516, 517, 518, 519, 520, 521, 522, 523, 524, 525, 526, 527, 528
 529, 530, 531, 532, 533, 534, 535, 536, 537, 538, 539, 540, 541, 542, 543, 544
 545, 546, 547, 548, 549, 550, 551, 552, 553, 554, 555, 556, 557, 558, 559, 560
** ... 13 like lines cut
*Nset, nset=Set-4
   1,   2,   3,   4,   5,   6,   7,   8,  11,  13,  14,  17,  20,  22,  23,  26
  29,  30,  33,  36,  38,  40,  42,  45,  47,  49,  67,  68,  69,  70,  71,  72
  73,  74,  75,  76,  77,  78,  79,  80,  81,  82,  83,  84,  85,  86,  87,  88
  89,  90,  91,  92,  93,  94,  95,  96,  97,  98,  99, 100, 101, 102, 103, 104
 168, 251, 262, 263, 266, 277, 288, 289, 292, 293, 305, 306, 318, 504, 505, 740
 741, 742, 743, 744, 745, 746, 747, 748, 749, 750, 751, 752, 753, 754, 755, 756
 757, 758, 759, 760, 761, 762, 763, 764, 765, 766, 767, 768, 769, 770, 771, 772
 773, 774, 775, 776, 777, 778, 779, 780, 781, 782, 783
*Elset, elset=Set-4
   1,   2,   3,   4,   5,   6,   7,   8,   9,  10,  11,  12,  13,  14,  15,  16
  17,  18,  19,  20,  21,  22,  23,  24,  25,  26, 667, 668, 669, 670, 671, 672
 673, 674, 675, 676, 677, 678, 679, 680, 681, 682, 683, 684, 685, 686, 687, 688
 689, 690, 691, 692, 693, 694, 695, 696, 697, 698, 699, 700, 701, 702, 703, 704
 705, 706, 707, 708, 709, 710, 711, 712, 713, 714, 715, 716, 717, 718, 719, 720
 721, 722, 723, 724, 725, 726, 727, 728, 729, 730, 731, 732, 733, 734, 735, 736
 737, 738, 739, 740, 741, 742, 743, 744, 745, 746, 747, 748, 749, 750, 751, 752
 753, 754
** Section: transversal
*Shell Section, elset=Set-4, material=Material-1
10., 5
** Region: (longitudinal:Set-3)
*Elset, elset=_I2, internal
  27,  28,  29,  30,  31,  32,  33,  34,  35,  36,  37,  38,  39,  40,  41,  42
  43,  44,  45,  46,  47,  48,  49,  50,  51,  52,  53,  54,  55,  56,  57,  58
  59,  60,  61,  62,  63,  64,  65,  66,  67,  68,  69,  70,  71,  72,  73,  74
  75,  76,  77,  78,  79,  80,  81,  82,  83,  84,  85,  86,  87,  88,  89,  90
  91,  92,  93,  94,  95,  96,  97,  98,  99, 100, 101, 102, 103, 104, 105, 106
 107, 108, 109, 110, 111, 112, 113, 114, 115, 116, 117, 118, 119, 120, 121, 122
 123, 124, 125, 126, 127, 128, 129, 130, 131, 132, 133, 134, 135, 136, 137, 138
 139, 140, 141, 142, 143, 144, 145, 146, 177, 178, 179, 180, 181, 182, 183, 184
 185, 186, 187, 188, 189, 190, 191, 192, 193, 194, 195, 196, 197, 198, 199, 200
 201, 202, 203, 204, 205, 206, 207, 208, 209, 210, 211, 212, 213, 214, 215, 216
 307, 308, 309, 310, 311, 312, 313, 314, 315, 316, 317, 318, 319, 320, 321, 322
 323, 324, 325, 326, 327, 328, 329, 330, 331, 332, 333, 334, 335, 336, 337, 338
 339, 340, 341, 342, 343, 344, 345, 346, 347, 348, 349, 350, 351, 352, 353, 354
 355, 356, 357, 358, 359, 360, 361, 362, 363, 364, 365, 366, 367, 368, 369, 370
 371, 372, 373, 374, 375, 376, 497, 498, 499, 500, 501, 502, 503, 504, 505, 506
 507, 508, 509, 510, 511, 512, 513, 514, 515, 516, 517, 518, 519, 520, 521, 522
 523, 524, 525, 526, 527, 528, 529, 530, 531, 532, 533, 534, 535, 536, 537, 538
 539, 540, 541, 542, 543, 544, 545, 546, 547, 548, 549, 550, 551, 552, 553, 554
 555, 556, 557, 558, 559, 560, 561, 562, 563, 564, 565, 566, 567, 568, 569, 570
 571, 572, 573, 574, 575, 576, 577, 578, 579, 580, 581, 582, 583, 584, 585, 586
** ... 5 like lines cut
** Section: longitudinal
*Shell Section, elset=_I2, material=Material-1
7., 5
** Region: (fundo:Set-2)
*Elset, elset=_I3, internal
 147, 148, 149, 150, 151, 152, 153, 154, 155, 156, 157, 158, 159, 160, 161, 162
 163, 164, 165, 166, 167, 168, 169, 170, 171, 172, 173, 174, 175, 176, 217, 218
 219, 220, 221, 222, 223, 224, 225, 226, 227, 228, 229, 230, 231, 232, 233, 234
 235, 236, 237, 238, 239, 240, 241, 242, 243, 244, 245, 246, 247, 248, 249, 250
 251, 252, 253, 254, 255, 256, 257, 258, 259, 260, 261, 262, 263, 264, 265, 266
 267, 268, 269, 270, 271, 272, 273, 274, 275, 276, 277, 278, 279, 280, 281, 282
 283, 284, 285, 286, 287, 288, 289, 290, 291, 292, 293, 294, 295, 296, 297, 298
 299, 300, 301, 302, 303, 304, 305, 306, 377, 378, 379, 380, 381, 382, 383, 384
 385, 386, 387, 388, 389, 390, 391, 392, 393, 394, 395, 396, 397, 398, 399, 400
 401, 402, 403, 404, 405, 406, 407, 408, 409, 410, 411, 412, 413, 414, 415, 416
 417, 418, 419, 420, 421, 422, 423, 424, 425, 426, 427, 428, 429, 430, 431, 432
 433, 434, 435, 436, 437, 438, 439, 440, 441, 442, 443, 444, 445, 446, 447, 448
 449, 450, 451, 452, 453, 454, 455, 456, 457, 458, 459, 460, 461, 462, 463, 464
 465, 466, 467, 468, 469, 470, 471, 472, 473, 474, 475, 476, 477, 478, 479, 480
 481, 482, 483, 484, 485, 486, 487, 488, 489, 490, 491, 492, 493, 494, 495, 496
** Section: fundo
*Shell Section, elset=_I3, material=Material-1
10., 5
*End Part
**  
**
** ASSEMBLY
**
*Assembly, name=Assembly
**  
*Instance, name=Part-3-1, part=Part-3
*End Instance
**  
*Node
      1,        -100.,           0.,        1500.
*Node
      2,        -100.,           0.,           0.
*Nset, nset=left, instance=Part-3-1
   9,  10,  12,  15,  16,  21,  24,  25,  31,  32,  37,  41,  44,  50,  51,  57
  58,  60,  62,  64, 178, 261, 264, 265, 287, 290, 291, 316, 317, 417, 418, 419
 485,
*Elset, elset=left, instance=Part-3-1
  36,  46,  56,  85,  86,  96, 116, 145, 146, 174, 175, 176, 215, 216, 244, 245
 246, 304, 305, 306, 346, 494, 495, 496, 515, 516, 526, 546, 586, 626, 645, 646
*Nset, nset=rigth, instance=Part-3-1
  18,  19,  27,  28,  34,  35,  39,  43,  46,  48,  52,  53,  54,  55,  56,  59
  61,  63,  65,  66, 276, 303, 304, 328, 374, 384, 385, 395, 396, 406, 407, 447
 466,
*Elset, elset=rigth, instance=Part-3-1
  66, 106, 126, 195, 196, 274, 275, 276, 325, 326, 336, 356, 375, 376, 404, 405
 406, 434, 435, 436, 464, 465, 466, 536, 565, 566, 576, 605, 606, 616, 656, 666
*Nset, nset=_PickedSet14, internal
 2,
*Nset, nset=_PickedSet15, internal
 1,
*Nset, nset=_PickedSet17, internal
 1,
*Nset, nset=_PickedSet18, internal
 2,
*Elset, elset=__PickedSurf16_SPOS, internal, instance=Part-3-1
 147, 148, 149, 150, 151, 152, 153, 154, 155, 156, 157, 158, 159, 160, 161, 162
 163, 164, 165, 166, 167, 168, 169, 170, 171, 172, 173, 174, 175, 176, 217, 218
 219, 220, 221, 222, 223, 224, 225, 226, 227, 228, 229, 230, 231, 232, 233, 234
 235, 236, 237, 238, 239, 240, 241, 242, 243, 244, 245, 246, 247, 248, 249, 250
 251, 252, 253, 254, 255, 256, 257, 258, 259, 260, 261, 262, 263, 264, 265, 266
 267, 268, 269, 270, 271, 272, 273, 274, 275, 276, 277, 278, 279, 280, 281, 282
 283, 284, 285, 286, 287, 288, 289, 290, 291, 292, 293, 294, 295, 296, 297, 298
 299, 300, 301, 302, 303, 304, 305, 306, 377, 378, 379, 380, 381, 382, 383, 384
 385, 386, 387, 388, 389, 390, 391, 392, 393, 394, 395, 396, 397, 398, 399, 400
 401, 402, 403, 404, 405, 406, 407, 408, 409, 410, 411, 412, 413, 414, 415, 416
 417, 418, 419, 420, 421, 422, 423, 424, 425, 426, 427, 428, 429, 430, 431, 432
 433, 434, 435, 436, 437, 438, 439, 440, 441, 442, 443, 444, 445, 446, 447, 448
 449, 450, 451, 452, 453, 454, 455, 456, 457, 458, 459, 460, 461, 462, 463, 464
 465, 466, 467, 468, 469, 470, 471, 472, 473, 474, 475, 476, 477, 478, 479, 480
 481, 482, 483, 484, 485, 486, 487, 488, 489, 490, 491, 492, 493, 494, 495, 496
*Surface, type=ELEMENT, name=_PickedSurf16, internal
__PickedSurf16_SPOS, SPOS
** Constraint: Constraint-1
*Rigid Body, ref node=_PickedSet14, tie nset=left
** Constraint: Constraint-2
*Rigid Body, ref node=_PickedSet15, tie nset=rigth
*End Assembly
** 
** MATERIALS
** 
*Material, name=Material-1
*Elastic
206000., 0.3
** 
** BOUNDARY CONDITIONS
** 
** Name: BC-1 Type: Displacement/Rotation
*Boundary
rigth, 1, 1
rigth, 2, 2
rigth, 3, 3
rigth, 5, 5
rigth, 6, 6
** Name: BC-2 Type: Displacement/Rotation
*Boundary
left, 1, 1
left, 2, 2
left, 3, 3
left, 4, 4
left, 5, 5
left, 6, 6
** ----------------------------------------------------------------
** 
** STEP: Step-1
** 
*Step, name=Step-1, nlgeom=NO
*Static
1., 1., 1e-05, 1.
** 
** LOADS
** 
** Name: Load-r12   Type: Moment
*Cload
_PickedSet17, 4, -100000.
** Name: Load-r22   Type: Moment
*Cload
_PickedSet18, 4, 100000.
** 
** OUTPUT REQUESTS
** 
*Restart, write, frequency=0
** 
** FIELD OUTPUT: F-Output-1
** 
*Output, field, variable=PRESELECT
** 
** HISTORY OUTPUT: H-Output-1
** 
*Output, history, variable=PRESELECT
*End Step
