*Heading
** Job name: Job-1_beam Model name: Model-1
** Generated by: Abaqus/CAE Learning Edition 2024
*Preprint, echo=NO, model=NO, history=NO, contact=NO
**
** PARTS
**
*Part, name=Part-1
*Node
      1,           0.,           0.
      2,         -10.,          15.
      3,         -30.,          15.
      4,         -10.,         -15.
      5,          10.,          15.
      6,          10.,         -15.
      7,          30.,         -15.
      8,          30.,          15.
      9,         -30.,         -15.
     10,         -50.,         -15.
     11,         -50.,          15.
     12,          50.,         -15.
     13,          50.,          15.
     14,          -8.,          12.
     15,          -6.,           9.
     16,          -4.,           6.
     17,          -2.,           3.
     18,   -13.333333,          15.
     19,   -16.666666,          15.
     20,         -20.,          15.
** ... 137 like lines cut
*Element, type=B21
1,  2, 14
2, 14, 15
3, 15, 16
4, 16, 17
5, 17,  1
 6,  2, 18
 7, 18, 19
 8, 19, 20
 9, 20, 21
10, 21, 22
11, 22,  3
12,  3, 23
13, 23, 24
14, 24, 25
15, 25, 26
16, 26, 27
17, 27, 28
18, 28, 29
19, 29, 30
20, 30, 31
** ... 148 like lines cut
*Nset, nset=Set-1, generate
   1,  157,    1
*Elset, elset=Set-1, generate
   1,  168,    1
*Nset, nset=Set-2, generate
   1,  157,    1
*Elset, elset=Set-2, generate
   1,  168,    1
** Section: Section-1  Profile: Profile-1
*Beam Section, elset=Set-1, material=Material-1, poisson = 0.3, temperature=GRADIENTS, section=BOX
0.005, 0.005, 0.0005, 0.0005, 0.0005, 0.0005
0.,0.,-1.
*End Part
**  
**
** ASSEMBLY
**
*Assembly, name=Assembly
**  
*Instance, name=Part-1-1, part=Part-1
*End Instance
**  
*Nset, nset=Set-1, instance=Part-1-1
 10, 12
*Nset, nset=Set-2, instance=Part-1-1
 4, 6
*End Assembly
** 
** MATERIALS
** 
*Material, name=Material-1
*Elastic
 2.06e+11, 0.3
** 
** BOUNDARY CONDITIONS
** 
** Name: BC-1 Type: Symmetry/Antisymmetry/Encastre
*Boundary
Set-1, ENCASTRE
** ----------------------------------------------------------------
** 
** STEP: Step-1
** 
*Step, name=Step-1, nlgeom=NO
*Static
1., 1., 1e-05, 1.
** 
** LOADS
** 
** Name: Load-1   Type: Concentrated force
*Cload
Set-2, 2, -5.
** 
** OUTPUT REQUESTS
** 
*Restart, write, frequency=0
** 
** FIELD OUTPUT: F-Output-1
** 
*Output, field, variable=PRESELECT
** 
** HISTORY OUTPUT: H-Output-1
** 
*Output, history, variable=PRESELECT
*End Step
